REMARK  Name = /home/nastia/projects/current/Alya/stabilisation_complex-receptor-ligand/start/docking/docking_first/ligand_start/ACh.pdb
REMARK  8 active torsions:
REMARK  status: ('A' for Active; 'I' for Inactive)
REMARK    1  A    between atoms: _1  and  _8
REMARK    2  A    between atoms: _1  and  _9
REMARK    3  A    between atoms: _3  and  _4
REMARK    4  A    between atoms: _3  and  _5
REMARK    5  A    between atoms: _3  and  _6
REMARK    6  A    between atoms: _3  and  _7
REMARK    7  A    between atoms: _4  and  _8
REMARK    8  A    between atoms: _9  and  _10
REMARK                            x       y       z     vdW  Elec       q    Type
REMARK                         _______ _______ _______ _____ _____    ______ ____
ROOT
ATOM      1  C   UNL     1       0.281   0.118   0.017  0.00  0.00    +0.214 C 
ENDROOT
BRANCH   1   2
ATOM      2  O   UNL     1       1.488  -0.632   0.009  0.00  0.00    -0.467 OA
BRANCH   2   3
ATOM      3  C   UNL     1       2.644   0.099  -0.001  0.00  0.00    +0.304 C 
ATOM      4  O   UNL     1       2.723   1.320  -0.003  0.00  0.00    -0.251 OA
ATOM      5  C   UNL     1       3.828  -0.819  -0.009  0.00  0.00    +0.136 C 
ENDBRANCH   2   3
ENDBRANCH   1   2
BRANCH   1   6
ATOM      6  C   UNL     1      -0.904  -0.827   0.027  0.00  0.00    -0.035 C 
BRANCH   6   7
ATOM      7  N   UNL     1      -2.193  -0.017  -0.003  0.00  0.00    +0.377 N 
ATOM      8  C   UNL     1      -2.267   0.865   1.236  0.00  0.00    -0.093 C 
ATOM      9  C   UNL     1      -3.385  -0.962  -0.024  0.00  0.00    -0.093 C 
ATOM     10  C   UNL     1      -2.215   0.856  -1.249  0.00  0.00    -0.093 C 
ENDBRANCH   6   7
ENDBRANCH   1   6
TORSDOF 4
