REMARK  Name = /home/nastia/projects/current/Alya/stabilisation_complex-receptor-ligand/start/docking/docking_first/ligand_start/ATC.pdb
REMARK  8 active torsions:
REMARK  status: ('A' for Active; 'I' for Inactive)
REMARK    1  A    between atoms: _1  and  _8
REMARK    2  A    between atoms: _1  and  _9
REMARK    3  A    between atoms: _3  and  _4
REMARK    4  A    between atoms: _3  and  _5
REMARK    5  A    between atoms: _3  and  _6
REMARK    6  A    between atoms: _3  and  _7
REMARK    7  A    between atoms: _4  and  _8
REMARK    8  A    between atoms: _9  and  _10
REMARK                            x       y       z     vdW  Elec       q    Type
REMARK                         _______ _______ _______ _____ _____    ______ ____
ROOT
ATOM      1  C   UNL     1       0.162  -0.064  -0.001  0.00  0.00    +0.059 C 
ENDROOT
BRANCH   1   2
ATOM      2  S   UNL     1       1.651  -1.108  -0.001  0.00  0.00    -0.090 S 
BRANCH   2   3
ATOM      3  C   UNL     1       2.899   0.135   0.000  0.00  0.00    +0.186 C 
ATOM      4  C   UNL     1       4.294  -0.423   0.001  0.00  0.00    +0.099 C 
ATOM      5  O   UNL     1       2.660   1.336  -0.001  0.00  0.00    -0.286 OA
ENDBRANCH   2   3
ENDBRANCH   1   2
BRANCH   1   6
ATOM      6  C   UNL     1      -1.115  -0.887   0.012  0.00  0.00    -0.065 C 
BRANCH   6   7
ATOM      7  N   UNL     1      -2.333   0.025   0.000  0.00  0.00    +0.375 N 
ATOM      8  C   UNL     1      -2.352   0.863   1.270  0.00  0.00    -0.093 C 
ATOM      9  C   UNL     1      -3.598  -0.819  -0.069  0.00  0.00    -0.093 C 
ATOM     10  C   UNL     1      -2.268   0.942  -1.212  0.00  0.00    -0.093 C 
ENDBRANCH   6   7
ENDBRANCH   1   6
TORSDOF 4
