REMARK  Name = /home/nastia/projects/current/Alya/stabilisation_complex-receptor-ligand/start/docking/docking_first/ligand_start/atma.pdb
REMARK  6 active torsions:
REMARK  status: ('A' for Active; 'I' for Inactive)
REMARK    1  A    between atoms: _2  and  _7
REMARK    2  A    between atoms: _6  and  _12
REMARK    3  A    between atoms: _9  and  _10
REMARK    4  A    between atoms: _12  and  _13
REMARK    5  A    between atoms: _12  and  _14
REMARK    6  A    between atoms: _12  and  _15
REMARK                            x       y       z     vdW  Elec       q    Type
REMARK                         _______ _______ _______ _____ _____    ______ ____
ROOT
ATOM      1  C   UNL     1      -2.837   0.414   1.676  0.00  0.00    +0.095 A 
ATOM      2  C   UNL     1      -3.977   0.270   2.464  0.00  0.00    +0.039 A 
ATOM      3  C   UNL     1      -4.992   1.217   2.378  0.00  0.00    +0.024 A 
ATOM      4  C   UNL     1      -4.866   2.295   1.513  0.00  0.00    +0.008 A 
ATOM      5  C   UNL     1      -3.724   2.434   0.729  0.00  0.00    +0.072 A 
ATOM      6  C   UNL     1      -2.689   1.493   0.799  0.00  0.00    +0.147 A 
ENDROOT
BRANCH   2   7
ATOM      7  N   UNL     1      -4.161  -0.821   3.372  0.00  0.00    -0.286 N 
ATOM      8  C   UNL     1      -3.285  -1.830   3.586  0.00  0.00    +0.214 C 
ATOM      9  C   UNL     1      -3.618  -2.918   4.582  0.00  0.00    +0.109 C 
ATOM     10  O   UNL     1      -2.208  -1.869   2.970  0.00  0.00    -0.276 OA
ATOM     11  H   UNL     1      -5.023  -0.845   3.905  0.00  0.00    +0.155 HD
ENDBRANCH   2   7
BRANCH   6  12
ATOM     12  N   UNL     1      -1.428   1.619  -0.047  0.00  0.00    -0.383 NA
ATOM     13  C   UNL     1      -0.246   1.501   0.854  0.00  0.00    +0.360 C 
ATOM     14  C   UNL     1      -1.385   2.805  -0.942  0.00  0.00    +0.360 C 
ATOM     15  C   UNL     1      -1.207   0.324  -0.753  0.00  0.00    +0.360 C 
ENDBRANCH   6  12
TORSDOF 2
