REMARK  Name = /home/nastia/projects/current/Alya/stabilisation_complex-receptor-ligand/start/docking/docking_first/ligand_start/BCh.pdb
REMARK  10 active torsions:
REMARK  status: ('A' for Active; 'I' for Inactive)
REMARK    1  A    between atoms: _1  and  _8
REMARK    2  A    between atoms: _1  and  _10
REMARK    3  A    between atoms: _3  and  _4
REMARK    4  A    between atoms: _3  and  _5
REMARK    5  A    between atoms: _3  and  _6
REMARK    6  A    between atoms: _3  and  _7
REMARK    7  A    between atoms: _4  and  _8
REMARK    8  A    between atoms: _9  and  _10
REMARK    9  A    between atoms: _9  and  _11
REMARK   10  A    between atoms: _11  and  _12
REMARK                            x       y       z     vdW  Elec       q    Type
REMARK                         _______ _______ _______ _____ _____    ______ ____
ROOT
ATOM      1  O   UNL     1       0.559  -0.505   0.017  0.00  0.00    -0.466 OA
ENDROOT
BRANCH   1   2
ATOM      2  C   UNL     1       1.675   0.290   0.009  0.00  0.00    +0.307 C 
ATOM      3  O   UNL     1       1.676   1.514   0.006  0.00  0.00    -0.251 OA
BRANCH   2   4
ATOM      4  C   UNL     1       2.909  -0.582   0.005  0.00  0.00    +0.120 C 
BRANCH   4   5
ATOM      5  C   UNL     1       4.193   0.243  -0.029  0.00  0.00    +0.008 C 
ATOM      6  C   UNL     1       5.427  -0.644  -0.001  0.00  0.00    +0.004 C 
ENDBRANCH   4   5
ENDBRANCH   2   4
ENDBRANCH   1   2
BRANCH   1   7
ATOM      7  C   UNL     1      -0.688   0.176   0.021  0.00  0.00    +0.214 C 
BRANCH   7   8
ATOM      8  C   UNL     1      -1.818  -0.834   0.029  0.00  0.00    -0.035 C 
BRANCH   8   9
ATOM      9  N   UNL     1      -3.150  -0.098  -0.006  0.00  0.00    +0.377 N 
ATOM     10  C   UNL     1      -3.277   0.780   1.231  0.00  0.00    -0.093 C 
ATOM     11  C   UNL     1      -4.288  -1.109  -0.029  0.00  0.00    -0.093 C 
ATOM     12  C   UNL     1      -3.218   0.770  -1.254  0.00  0.00    -0.093 C 
ENDBRANCH   8   9
ENDBRANCH   7   8
ENDBRANCH   1   7
TORSDOF 6
