REMARK  Name = /home/nastia/projects/current/Alya/stabilisation_complex-receptor-ligand/start/docking/docking_first/ligand_start/BTC.pdb
REMARK  10 active torsions:
REMARK  status: ('A' for Active; 'I' for Inactive)
REMARK    1  A    between atoms: _1  and  _8
REMARK    2  A    between atoms: _1  and  _10
REMARK    3  A    between atoms: _3  and  _4
REMARK    4  A    between atoms: _3  and  _5
REMARK    5  A    between atoms: _3  and  _6
REMARK    6  A    between atoms: _3  and  _7
REMARK    7  A    between atoms: _4  and  _8
REMARK    8  A    between atoms: _9  and  _10
REMARK    9  A    between atoms: _9  and  _11
REMARK   10  A    between atoms: _11  and  _12
REMARK                            x       y       z     vdW  Elec       q    Type
REMARK                         _______ _______ _______ _____ _____    ______ ____
ROOT
ATOM      1  S   UNL     1       0.609  -1.181  -0.003  0.00  0.00    -0.090 S 
ENDROOT
BRANCH   1   2
ATOM      2  C   UNL     1       1.892   0.032   0.001  0.00  0.00    +0.189 C 
ATOM      3  O   UNL     1       1.671   1.236   0.005  0.00  0.00    -0.285 OA
BRANCH   2   4
ATOM      4  C   UNL     1       3.278  -0.582   0.000  0.00  0.00    +0.086 C 
BRANCH   4   5
ATOM      5  C   UNL     1       4.374   0.482  -0.019  0.00  0.00    +0.005 C 
ATOM      6  C   UNL     1       5.759  -0.144   0.014  0.00  0.00    +0.004 C 
ENDBRANCH   4   5
ENDBRANCH   2   4
ENDBRANCH   1   2
BRANCH   1   7
ATOM      7  C   UNL     1      -0.853  -0.100  -0.001  0.00  0.00    +0.059 C 
BRANCH   7   8
ATOM      8  C   UNL     1      -2.151  -0.891   0.010  0.00  0.00    -0.065 C 
BRANCH   8   9
ATOM      9  N   UNL     1      -3.346   0.052   0.001  0.00  0.00    +0.375 N 
ATOM     10  C   UNL     1      -3.343   0.887   1.273  0.00  0.00    -0.093 C 
ATOM     11  C   UNL     1      -4.631  -0.760  -0.071  0.00  0.00    -0.093 C 
ATOM     12  C   UNL     1      -3.258   0.970  -1.210  0.00  0.00    -0.093 C 
ENDBRANCH   8   9
ENDBRANCH   7   8
ENDBRANCH   1   7
TORSDOF 6
