REMARK  Name = /home/nastia/projects/current/Alya/stabilisation_complex-receptor-ligand/start/docking/docking_first/ligand_start/BzCh.pdb
REMARK  8 active torsions:
REMARK  status: ('A' for Active; 'I' for Inactive)
REMARK    1  A    between atoms: _1  and  _8
REMARK    2  A    between atoms: _1  and  _9
REMARK    3  A    between atoms: _3  and  _4
REMARK    4  A    between atoms: _3  and  _5
REMARK    5  A    between atoms: _3  and  _6
REMARK    6  A    between atoms: _3  and  _7
REMARK    7  A    between atoms: _4  and  _8
REMARK    8  A    between atoms: _9  and  _10
REMARK                            x       y       z     vdW  Elec       q    Type
REMARK                         _______ _______ _______ _____ _____    ______ ____
ROOT
ATOM      1  C   UNL     1      -0.596  -0.648  -0.104  0.00  0.00    +0.339 C 
ATOM      2  O   UNL     1      -0.202  -1.727   0.311  0.00  0.00    -0.245 OA
ENDROOT
BRANCH   1   3
ATOM      3  C   UNL     1      -2.010  -0.205  -0.007  0.00  0.00    +0.059 A 
ATOM      4  C   UNL     1      -2.279   1.144   0.105  0.00  0.00    +0.015 A 
ATOM      5  C   UNL     1      -3.608   1.560   0.195  0.00  0.00    +0.001 A 
ATOM      6  C   UNL     1      -4.637   0.619   0.171  0.00  0.00    +0.000 A 
ATOM      7  C   UNL     1      -4.338  -0.739   0.056  0.00  0.00    +0.001 A 
ATOM      8  C   UNL     1      -3.010  -1.155  -0.034  0.00  0.00    +0.015 A 
ENDBRANCH   1   3
BRANCH   1   9
ATOM      9  O   UNL     1       0.169   0.304  -0.707  0.00  0.00    -0.463 OA
BRANCH   9  10
ATOM     10  C   UNL     1       1.548  -0.006  -0.858  0.00  0.00    +0.214 C 
BRANCH  10  11
ATOM     11  C   UNL     1       2.312   0.471   0.361  0.00  0.00    -0.035 C 
BRANCH  11  12
ATOM     12  N   UNL     1       3.793   0.171   0.174  0.00  0.00    +0.377 N 
ATOM     13  C   UNL     1       4.568   0.676   1.383  0.00  0.00    -0.093 C 
ATOM     14  C   UNL     1       3.992  -1.332   0.036  0.00  0.00    -0.093 C 
ATOM     15  C   UNL     1       4.298   0.867  -1.081  0.00  0.00    -0.093 C 
ENDBRANCH  11  12
ENDBRANCH  10  11
ENDBRANCH   9  10
ENDBRANCH   1   9
TORSDOF 5
