REMARK  Name = /home/nastia/projects/current/Alya/stabilisation_complex-receptor-ligand/start/docking/docking_first/ligand_start/BzTC.pdb
REMARK  8 active torsions:
REMARK  status: ('A' for Active; 'I' for Inactive)
REMARK    1  A    between atoms: _1  and  _8
REMARK    2  A    between atoms: _1  and  _9
REMARK    3  A    between atoms: _3  and  _4
REMARK    4  A    between atoms: _3  and  _5
REMARK    5  A    between atoms: _3  and  _6
REMARK    6  A    between atoms: _3  and  _7
REMARK    7  A    between atoms: _4  and  _8
REMARK    8  A    between atoms: _9  and  _10
REMARK                            x       y       z     vdW  Elec       q    Type
REMARK                         _______ _______ _______ _____ _____    ______ ____
ROOT
ATOM      1  C   UNL     1      -0.902   0.463  -0.165  0.00  0.00    +0.220 C 
ATOM      2  O   UNL     1      -0.537   1.578  -0.517  0.00  0.00    -0.280 OA
ENDROOT
BRANCH   1   3
ATOM      3  C   UNL     1      -2.350   0.149  -0.062  0.00  0.00    +0.028 A 
ATOM      4  C   UNL     1      -3.231   1.162   0.255  0.00  0.00    +0.012 A 
ATOM      5  C   UNL     1      -4.591   0.867   0.352  0.00  0.00    +0.001 A 
ATOM      6  C   UNL     1      -5.040  -0.434   0.130  0.00  0.00    +0.000 A 
ATOM      7  C   UNL     1      -4.129  -1.441  -0.189  0.00  0.00    +0.001 A 
ATOM      8  C   UNL     1      -2.769  -1.147  -0.286  0.00  0.00    +0.012 A 
ENDBRANCH   1   3
BRANCH   1   9
ATOM      9  S   UNL     1       0.230  -0.810   0.280  0.00  0.00    -0.085 S 
BRANCH   9  10
ATOM     10  C   UNL     1       1.809   0.045  -0.010  0.00  0.00    +0.059 C 
BRANCH  10  11
ATOM     11  C   UNL     1       3.005  -0.844   0.288  0.00  0.00    -0.065 C 
BRANCH  11  12
ATOM     12  N   UNL     1       4.302  -0.086   0.042  0.00  0.00    +0.375 N 
ATOM     13  C   UNL     1       4.318   1.179   0.887  0.00  0.00    -0.093 C 
ATOM     14  C   UNL     1       5.484  -0.966   0.424  0.00  0.00    -0.093 C 
ATOM     15  C   UNL     1       4.401   0.286  -1.430  0.00  0.00    -0.093 C 
ENDBRANCH  11  12
ENDBRANCH  10  11
ENDBRANCH   9  10
ENDBRANCH   1   9
TORSDOF 5
