REMARK  Name = /home/nastia/projects/current/Alya/stabilisation_complex-receptor-ligand/start/docking/docking_first/ligand_start/ontfnac.pdb
REMARK  3 active torsions:
REMARK  status: ('A' for Active; 'I' for Inactive)
REMARK    1  A    between atoms: _1  and  _7
REMARK    2  A    between atoms: _2  and  _15
REMARK    3  A    between atoms: _9  and  _11
REMARK                            x       y       z     vdW  Elec       q    Type
REMARK                         _______ _______ _______ _____ _____    ______ ____
ROOT
ATOM      1  C   UNL     1      -3.743   0.347   2.091  0.00  0.00    +0.064 A 
ATOM      2  C   UNL     1      -2.582  -0.208   1.549  0.00  0.00    +0.025 A 
ATOM      3  C   UNL     1      -1.823   0.467   0.603  0.00  0.00    +0.002 A 
ATOM      4  C   UNL     1      -2.215   1.722   0.178  0.00  0.00    +0.002 A 
ATOM      5  C   UNL     1      -3.361   2.292   0.701  0.00  0.00    +0.034 A 
ATOM      6  C   UNL     1      -4.128   1.622   1.649  0.00  0.00    +0.147 A 
ENDROOT
BRANCH   1   7
ATOM      7  N   UNL     1      -4.533  -0.383   3.091  0.00  0.00    -0.276 N 
ATOM      8  C   UNL     1      -4.223  -1.593   3.553  0.00  0.00    +0.322 C 
ATOM      9  O   UNL     1      -3.229  -2.203   3.167  0.00  0.00    -0.266 OA
ATOM     10  H   UNL     1      -5.364   0.045   3.460  0.00  0.00    +0.155 HD
BRANCH   8  11
ATOM     11  C   UNL     1      -5.116  -2.249   4.586  0.00  0.00    +0.470 C 
ATOM     12  F   UNL     1      -5.193  -1.370   5.638  0.00  0.00    -0.162 F 
ATOM     13  F   UNL     1      -6.375  -2.281   4.039  0.00  0.00    -0.162 F 
ATOM     14  F   UNL     1      -4.660  -3.515   4.972  0.00  0.00    -0.162 F 
ENDBRANCH   8  11
ENDBRANCH   1   7
BRANCH   6  15
ATOM     15  N   UNL     1      -5.272   2.315   2.101  0.00  0.00    +0.058 N 
ATOM     16  O   UNL     1      -5.817   1.648   2.883  0.00  0.00    -0.126 OA
ATOM     17  O   UNL     1      -5.231   3.301   1.510  0.00  0.00    -0.126 OA
ENDBRANCH   6  15
TORSDOF 3
