REMARK  Name = /home/nastia/projects/current/Alya/stabilisation_complex-receptor-ligand/start/docking/docking_first/ligand_start/PhA.pdb
REMARK  15 active torsions:
REMARK  status: ('A' for Active; 'I' for Inactive)
REMARK    1  A    between atoms: _1  and  _22
REMARK    2  A    between atoms: _2  and  _26
REMARK    3  A    between atoms: _2  and  _42
REMARK    4  A    between atoms: _3  and  _27
REMARK    5  A    between atoms: _10  and  _13
REMARK    6  A    between atoms: _11  and  _16
REMARK    7  A    between atoms: _13  and  _18
REMARK    8  A    between atoms: _18  and  _27
REMARK    9  A    between atoms: _19  and  _26
REMARK   10  A    between atoms: _23  and  _28
REMARK   11  A    between atoms: _30  and  _37
REMARK   12  A    between atoms: _32  and  _40
REMARK   13  A    between atoms: _34  and  _39
REMARK   14  A    between atoms: _36  and  _41
REMARK   15  A    between atoms: _39  and  _43
REMARK                            x       y       z     vdW  Elec       q    Type
REMARK                         _______ _______ _______ _____ _____    ______ ____
ROOT
ATOM      1  C   UNL     1       2.646   3.228  -0.247  0.00  0.00    +0.141 C 
ATOM      2  C   UNL     1       1.229   3.206  -0.176  0.00  0.00    +0.046 A 
ATOM      3  C   UNL     1       0.067   3.965  -0.040  0.00  0.00    -0.014 A 
ATOM      4  C   UNL     1      -0.022   5.429   0.130  0.00  0.00    +0.046 C 
ATOM      5  C   UNL     1      -0.999   3.058  -0.095  0.00  0.00    +0.045 A 
ATOM      6  C   UNL     1      -2.411   3.228  -0.010  0.00  0.00    +0.054 C 
ATOM      7  C   UNL     1      -3.309   2.226   0.055  0.00  0.00    +0.070 A 
ATOM      8  C   UNL     1      -4.755   2.372   0.143  0.00  0.00    -0.017 A 
ATOM      9  C   UNL     1      -5.339   1.166   0.193  0.00  0.00    -0.020 A 
ATOM     10  C   UNL     1      -6.760   0.760   0.276  0.00  0.00    +0.046 C 
ATOM     11  C   UNL     1      -4.168   0.264   0.132  0.00  0.00    +0.070 A 
ATOM     12  C   UNL     1      -4.385  -1.204   0.184  0.00  0.00    +0.056 C 
ATOM     13  C   UNL     1      -3.429  -2.123  -0.034  0.00  0.00    +0.074 C 
ATOM     14  C   UNL     1      -3.625  -3.573   0.014  0.00  0.00    +0.005 C 
ATOM     15  C   UNL     1      -2.462  -4.186  -0.269  0.00  0.00    -0.016 C 
ATOM     16  C   UNL     1      -2.080  -5.617  -0.350  0.00  0.00    +0.046 C 
ATOM     17  C   UNL     1      -1.553  -3.040  -0.487  0.00  0.00    +0.070 C 
ATOM     18  C   UNL     1      -0.139  -3.316  -0.856  0.00  0.00    +0.051 C 
ATOM     19  C   UNL     1       0.809  -2.367  -0.861  0.00  0.00    +0.029 A 
ATOM     20  N   UNL     1       0.701  -1.049  -0.533  0.00  0.00    -0.314 N 
ATOM     21  H   UNL     1      -0.191  -0.662  -0.276  0.00  0.00    +0.152 HD
ATOM     22  C   UNL     1       1.865  -0.318  -0.545  0.00  0.00    +0.037 A 
ATOM     23  C   UNL     1       1.980   1.018  -0.438  0.00  0.00    +0.037 C 
ATOM     24  C   UNL     1       2.989  -1.338  -0.714  0.00  0.00    -0.003 A 
ATOM     25  C   UNL     1       2.256  -2.610  -1.257  0.00  0.00    -0.007 A 
ATOM     26  C   UNL     1       2.397  -2.722  -2.777  0.00  0.00    +0.037 C 
ATOM     27  N   UNL     1      -2.113  -1.872  -0.352  0.00  0.00    -0.247 NA
ATOM     28  N   UNL     1      -3.024   0.876   0.057  0.00  0.00    -0.247 NA
ATOM     29  N   UNL     1      -0.464   1.791  -0.292  0.00  0.00    -0.354 N 
ATOM     30  H   UNL     1      -1.011   0.951  -0.407  0.00  0.00    +0.166 HD
ATOM     31  C   UNL     1       0.876   1.896  -0.301  0.00  0.00    +0.061 A 
ATOM     32  C   UNL     1       3.137   1.963  -0.412  0.00  0.00    +0.112 C 
ENDROOT
BRANCH   1  33
ATOM     33  O   UNL     1       3.293   4.421  -0.165  0.00  0.00    -0.505 OA
ATOM     34  H   UNL     1       2.637   5.133  -0.075  0.00  0.00    +0.292 HD
ENDBRANCH   1  33
BRANCH  14  35
ATOM     35  C   UNL     1      -4.844  -4.284   0.314  0.00  0.00    +0.002 C 
ATOM     36  C   UNL     1      -5.500  -4.160   1.466  0.00  0.00    +0.009 C 
ENDBRANCH  14  35
BRANCH   8  37
ATOM     37  C   UNL     1      -5.426   3.705   0.166  0.00  0.00    +0.034 C 
ATOM     38  C   UNL     1      -5.299   4.381   1.520  0.00  0.00    +0.009 C 
ENDBRANCH   8  37
BRANCH  32  39
ATOM     39  C   UNL     1       4.555   1.665  -0.544  0.00  0.00    +0.343 C 
ATOM     40  O   UNL     1       5.053   1.119  -1.524  0.00  0.00    -0.245 OA
BRANCH  39  41
ATOM     41  O   UNL     1       5.204   2.085   0.575  0.00  0.00    -0.464 OA
ATOM     42  C   UNL     1       6.618   1.860   0.596  0.00  0.00    +0.280 C 
ENDBRANCH  39  41
ENDBRANCH  32  39
BRANCH  24  43
ATOM     43  C   UNL     1       3.654  -1.646   0.632  0.00  0.00    +0.040 C 
BRANCH  43  44
ATOM     44  C   UNL     1       5.034  -2.261   0.469  0.00  0.00    +0.124 C 
BRANCH  44  45
ATOM     45  C   UNL     1       5.680  -2.557   1.800  0.00  0.00    +0.305 C 
ATOM     46  O   UNL     1       5.116  -2.416   2.877  0.00  0.00    -0.251 OA
BRANCH  45  47
ATOM     47  O   UNL     1       6.947  -3.024   1.679  0.00  0.00    -0.481 OA
ATOM     48  H   UNL     1       7.349  -3.223   2.551  0.00  0.00    +0.295 HD
ENDBRANCH  45  47
ENDBRANCH  44  45
ENDBRANCH  43  44
ENDBRANCH  24  43
TORSDOF 9
