REMARK  Name = /home/nastia/projects/current/Alya/stabilisation_complex-receptor-ligand/start/docking/docking_first/ligand_start/PhA2.pdb
REMARK  2 active torsions:
REMARK  status: ('A' for Active; 'I' for Inactive)
REMARK    1  A    between atoms: _3  and  _4
REMARK    2  A    between atoms: _4  and  _10
REMARK                            x       y       z     vdW  Elec       q    Type
REMARK                         _______ _______ _______ _____ _____    ______ ____
ROOT
ATOM      1  C   UNL     1      -0.137  -0.069   0.513  0.00  0.00    -0.037 A 
ATOM      2  C   UNL     1      -0.824   1.141   0.426  0.00  0.00    +0.004 A 
ATOM      3  C   UNL     1      -2.133   1.166  -0.056  0.00  0.00    +0.000 A 
ATOM      4  C   UNL     1      -2.754  -0.018  -0.452  0.00  0.00    +0.000 A 
ATOM      5  C   UNL     1      -2.066  -1.229  -0.365  0.00  0.00    +0.000 A 
ATOM      6  C   UNL     1      -0.757  -1.254   0.118  0.00  0.00    +0.004 A 
ENDROOT
BRANCH   1   7
ATOM      7  C   UNL     1       1.263  -0.097   1.029  0.00  0.00    +0.160 C 
BRANCH   7   9
ATOM      8  O   UNL     1       2.149   1.177  -0.750  0.00  0.00    -0.246 OA
ATOM      9  C   UNL     1       2.242   0.080  -0.131  0.00  0.00    +0.360 C 
ATOM     10  O   UNL     1       3.018  -0.897  -0.333  0.00  0.00    -0.246 OA
ENDBRANCH   7   9
ENDBRANCH   1   7
TORSDOF 2
