REMARK  Name = /home/nastia/projects/current/Alya/stabilisation_complex-receptor-ligand/start/docking/docking_first/ligand_start/Propidium.pdb
REMARK  12 active torsions:
REMARK  status: ('A' for Active; 'I' for Inactive)
REMARK    1  A    between atoms: _1  and  _5
REMARK    2  A    between atoms: _1  and  _6
REMARK    3  A    between atoms: _1  and  _7
REMARK    4  A    between atoms: _1  and  _9
REMARK    5  A    between atoms: _2  and  _10
REMARK    6  A    between atoms: _3  and  _23
REMARK    7  A    between atoms: _4  and  _25
REMARK    8  A    between atoms: _5  and  _8
REMARK    9  A    between atoms: _6  and  _11
REMARK   10  A    between atoms: _7  and  _12
REMARK   11  A    between atoms: _8  and  _10
REMARK   12  A    between atoms: _13  and  _18
REMARK                            x       y       z     vdW  Elec       q    Type
REMARK                         _______ _______ _______ _____ _____    ______ ____
ROOT
ATOM      1  N   UNL     1      -0.390  -0.442   0.626  0.00  0.00    -0.340 N 
ATOM      2  C   UNL     1      -0.889  -1.682   0.488  0.00  0.00    +0.052 A 
ATOM      3  C   UNL     1      -0.083  -2.783   0.817  0.00  0.00    +0.049 A 
ATOM      4  C   UNL     1      -0.574  -4.077   0.684  0.00  0.00    +0.027 A 
ATOM      5  C   UNL     1      -1.869  -4.277   0.223  0.00  0.00    +0.023 A 
ATOM      6  C   UNL     1      -2.676  -3.183  -0.106  0.00  0.00    +0.012 A 
ATOM      7  C   UNL     1      -2.213  -1.850   0.016  0.00  0.00    +0.006 A 
ATOM      8  C   UNL     1      -2.980  -0.680  -0.301  0.00  0.00    -0.010 A 
ATOM      9  C   UNL     1      -2.384   0.591  -0.129  0.00  0.00    -0.006 A 
ATOM     10  C   UNL     1      -3.095   1.766  -0.426  0.00  0.00    +0.078 C 
ATOM     11  C   UNL     1      -4.403   1.706  -0.896  0.00  0.00    +0.010 C 
ATOM     12  C   UNL     1      -5.012   0.472  -1.074  0.00  0.00    +0.019 C 
ATOM     13  C   UNL     1      -4.312  -0.702  -0.781  0.00  0.00    +0.010 C 
ATOM     14  C   UNL     1      -1.079   0.665   0.340  0.00  0.00    +0.054 A 
ENDROOT
BRANCH  14  15
ATOM     15  C   UNL     1      -0.366   1.912   0.554  0.00  0.00    -0.001 A 
ATOM     16  C   UNL     1      -0.436   2.546   1.791  0.00  0.00    +0.010 A 
ATOM     17  C   UNL     1       0.249   3.744   1.996  0.00  0.00    +0.001 A 
ATOM     18  C   UNL     1       1.001   4.303   0.963  0.00  0.00    +0.000 A 
ATOM     19  C   UNL     1       1.069   3.664  -0.275  0.00  0.00    +0.001 A 
ATOM     20  C   UNL     1       0.384   2.466  -0.480  0.00  0.00    +0.010 A 
ENDBRANCH  14  15
BRANCH   4  21
ATOM     21  N   UNL     1       0.237  -5.181   1.016  0.00  0.00    -0.358 N 
ATOM     22  H   UNL     1       1.181  -5.036   1.349  0.00  0.00    +0.142 HD
ATOM     23  H   UNL     1      -0.122  -6.121   0.916  0.00  0.00    +0.142 HD
ENDBRANCH   4  21
BRANCH  11  24
ATOM     24  N   UNL     1      -5.106   2.892  -1.191  0.00  0.00    -0.361 N 
ATOM     25  H   UNL     1      -4.661   3.790  -1.062  0.00  0.00    +0.142 HD
ATOM     26  H   UNL     1      -6.056   2.845  -1.534  0.00  0.00    +0.142 HD
ENDBRANCH  11  24
BRANCH   1  27
ATOM     27  C   UNL     1       0.996  -0.280   1.122  0.00  0.00    +0.120 C 
BRANCH  27  28
ATOM     28  C   UNL     1       1.956  -0.272  -0.065  0.00  0.00    +0.003 C 
BRANCH  28  29
ATOM     29  C   UNL     1       3.412  -0.095   0.343  0.00  0.00    -0.074 C 
BRANCH  29  30
ATOM     30  N   UNL     1       4.285  -0.046  -0.854  0.00  0.00    +0.378 N 
ATOM     31  C   UNL     1       3.906   1.134  -1.761  0.00  0.00    -0.092 C 
BRANCH  30  32
ATOM     32  C   UNL     1       5.758   0.119  -0.450  0.00  0.00    -0.079 C 
ATOM     33  C   UNL     1       5.928   1.427   0.292  0.00  0.00    -0.016 C 
ENDBRANCH  30  32
BRANCH  30  34
ATOM     34  C   UNL     1       4.159  -1.337  -1.676  0.00  0.00    -0.079 C 
ATOM     35  C   UNL     1       4.527  -2.519  -0.807  0.00  0.00    -0.016 C 
ENDBRANCH  30  34
ENDBRANCH  29  30
ENDBRANCH  28  29
ENDBRANCH  27  28
ENDBRANCH   1  27
TORSDOF 9
