REMARK  Name = /home/nastia/projects/current/Alya/stabilisation_complex-receptor-ligand/start/docking/docking_first/ligand_start/TMA.pdb
REMARK  4 active torsions:
REMARK  status: ('A' for Active; 'I' for Inactive)
REMARK    1  A    between atoms: _1  and  _2
REMARK    2  A    between atoms: _1  and  _3
REMARK    3  A    between atoms: _1  and  _4
REMARK    4  A    between atoms: _1  and  _5
REMARK                            x       y       z     vdW  Elec       q    Type
REMARK                         _______ _______ _______ _____ _____    ______ ____
ROOT
ATOM      1  N   UNL     1       0.000   0.000   0.000  0.00  0.00    +0.373 N 
ATOM      2  C   UNL     1       0.674   0.511   1.265  0.00  0.00    -0.093 C 
ATOM      3  C   UNL     1      -0.938  -1.145   0.352  0.00  0.00    -0.093 C 
ATOM      4  C   UNL     1      -0.795   1.128  -0.642  0.00  0.00    -0.093 C 
ATOM      5  C   UNL     1       1.059  -0.493  -0.975  0.00  0.00    -0.093 C 
ENDROOT
TORSDOF 0
